<?xml version="1.0" encoding="UTF-8"?>

<!-- generated on Thu 04 Feb 2021 12:15:23 AM MST by Eclipse SUMO netedit Version 1.8.0
<configuration xmlns:xsi="http://www.w3.org/2001/XMLSchema-instance" xsi:noNamespaceSchemaLocation="http://sumo.dlr.de/xsd/netconvertConfiguration.xsd">

    <input>
        <sumo-net-file value="/home/sepehr/PycharmProjects/DAD/simulation/config/network.xml"/>
    </input>

    <output>
        <output-file value="/home/sepehr/PycharmProjects/DAD/simulation/config/network.xml"/>
    </output>

    <processing>
        <geometry.min-radius.fix.railways value="false"/>
        <geometry.max-grade.fix value="false"/>
        <offset.disable-normalization value="true"/>
        <lefthand value="false"/>
    </processing>

    <junctions>
        <no-internal-links value="true"/>
        <no-turnarounds value="true"/>
        <junctions.corner-detail value="5"/>
        <junctions.limit-turn-speed value="5.5"/>
        <rectangular-lane-cut value="false"/>
    </junctions>

    <pedestrian>
        <walkingareas value="false"/>
    </pedestrian>

    <report>
        <aggregate-warnings value="5"/>
    </report>

</configuration>
-->

<net version="1.6" junctionCornerDetail="5" limitTurnSpeed="5.50" xmlns:xsi="http://www.w3.org/2001/XMLSchema-instance" xsi:noNamespaceSchemaLocation="http://sumo.dlr.de/xsd/net_file.xsd">

    <location netOffset="0.00,0.00" convBoundary="-36.31,-76.05,947.12,117.10" origBoundary="-10000000000.00,-10000000000.00,10000000000.00,10000000000.00" projParameter="!"/>

    <edge id="gneE0" from="end" to="start" priority="-1">
        <lane id="gneE0_0" index="0" speed="13.89" length="1002.22" shape="-34.77,-83.90 948.66,109.25"/>
        <lane id="gneE0_1" index="1" speed="13.89" length="1002.22" shape="-35.38,-80.76 948.05,112.39"/>
        <lane id="gneE0_2" index="2" speed="13.89" length="1002.22" shape="-36.00,-77.62 947.43,115.53"/>
    </edge>

    <junction id="end" type="dead_end" x="-36.31" y="-76.05" incLanes="" intLanes="" shape="-36.31,-76.05 -34.46,-85.47"/>
    <junction id="start" type="dead_end" x="947.12" y="117.10" incLanes="gneE0_0 gneE0_1 gneE0_2" intLanes="" shape="948.97,107.68 947.12,117.10"/>

</net>
