<?xml version="1.0" encoding="UTF-8"?>

<!-- generated on Fri Jan 15 16:59:48 2021 by Eclipse SUMO duarouter Version 1.8.0
<configuration xmlns:xsi="http://www.w3.org/2001/XMLSchema-instance" xsi:noNamespaceSchemaLocation="http://sumo.dlr.de/xsd/duarouterConfiguration.xsd">

    <input>
        <net-file value="network.xml"/>
        <route-files value="trips1.xml"/>
    </input>

    <output>
        <output-file value="trips1.xml.tmp"/>
        <write-trips value="true"/>
    </output>

    <time>
        <begin value="0"/>
        <end value="3600"/>
    </time>

    <report>
        <no-warnings value="true"/>
        <ignore-errors value="true"/>
        <no-step-log value="true"/>
    </report>

</configuration>
-->
<routes xmlns:xsi="http://www.w3.org/2001/XMLSchema-instance"
        xsi:noNamespaceSchemaLocation="http://sumo.dlr.de/xsd/routes_file.xsd">
  <vType id="veh_passenger1" vClass="passenger" speedFactor="1" speedDev="0.05" lcKeepRight="0"
           lcCooperative="1" lcSpeedGain="1" lcStrategic="1"/>
    <vType id="veh_passenger2" vClass="passenger" speedFactor="0.8" speedDev="0.05" lcKeepRight="0"
           lcCooperative="1" lcSpeedGain="1" lcStrategic="1"/>
    <vType id="veh_passenger3" vClass="passenger" speedFactor="0.6" speedDev="0.05" lcKeepRight="0"
           lcCooperative="1" lcSpeedGain="1" lcStrategic="1"/>
    <!--        <vType id="veh_passenger4" vClass="passenger" speedFactor="0.7" speedDev="0" lcKeepRight="0" minGap="0"-->
    <!--               lcCooperative="1" lcSpeedGain="1" lcStrategic="1"/>-->
    <!--        <vType id="veh_passenger5" vClass="passenger" speedFactor="0.6" speedDev="0" lcKeepRight="0" minGap="0"-->
    <!--               lcCooperative="1" lcSpeedGain="1" lcStrategic="1"/>-->
<trip id="veh0" type="veh_passenger1" depart="0.00"  departLane="random" departSpeed="max" from="calgary1" to="calgary2"/>
<trip id="veh1" type="veh_passenger1" depart="3.00"  departLane="random" departSpeed="max" from="calgary1" to="calgary2"/>
<trip id="veh2" type="veh_passenger1" depart="6.00"  departLane="random" departSpeed="max" from="calgary1" to="calgary2"/>
<trip id="veh3" type="veh_passenger1" depart="9.00"  departLane="random" departSpeed="max" from="calgary1" to="calgary2"/>
<trip id="veh4" type="veh_passenger1" depart="12.00"  departLane="random" departSpeed="max" from="calgary1" to="calgary2"/>
<trip id="veh10" type="veh_passenger3" depart="300.00"  departLane="random" departSpeed="max" from="calgary1" to="calgary2"/>
<trip id="veh11" type="veh_passenger3" depart="303.00"  departLane="random" departSpeed="max" from="calgary1" to="calgary2"/>
<trip id="veh12" type="veh_passenger3" depart="306.00"  departLane="random" departSpeed="max" from="calgary1" to="calgary2"/>
<trip id="veh13" type="veh_passenger3" depart="309.00"  departLane="random" departSpeed="max" from="calgary1" to="calgary2"/>
<trip id="veh14" type="veh_passenger3" depart="312.00"  departLane="random" departSpeed="max" from="calgary1" to="calgary2"/>
<trip id="veh20" type="veh_passenger2" depart="600.00"  departLane="random" departSpeed="max" from="calgary1" to="calgary2"/>
<trip id="veh21" type="veh_passenger2" depart="603.00"  departLane="random" departSpeed="max" from="calgary1" to="calgary2"/>
<trip id="veh22" type="veh_passenger2" depart="606.00"  departLane="random" departSpeed="max" from="calgary1" to="calgary2"/>
<trip id="veh23" type="veh_passenger2" depart="609.00"  departLane="random" departSpeed="max" from="calgary1" to="calgary2"/>
<trip id="veh24" type="veh_passenger2" depart="612.00"  departLane="random" departSpeed="max" from="calgary1" to="calgary2"/>
<trip id="veh30" type="veh_passenger3" depart="900.00"  departLane="random" departSpeed="max" from="calgary1" to="calgary2"/>
<trip id="veh31" type="veh_passenger3" depart="903.00"  departLane="random" departSpeed="max" from="calgary1" to="calgary2"/>
<trip id="veh32" type="veh_passenger3" depart="906.00"  departLane="random" departSpeed="max" from="calgary1" to="calgary2"/>
<trip id="veh33" type="veh_passenger3" depart="909.00"  departLane="random" departSpeed="max" from="calgary1" to="calgary2"/>
<trip id="veh34" type="veh_passenger3" depart="912.00"  departLane="random" departSpeed="max" from="calgary1" to="calgary2"/>
<trip id="veh40" type="veh_passenger2" depart="1200.00"  departLane="random" departSpeed="max" from="calgary1" to="calgary2"/>
<trip id="veh41" type="veh_passenger2" depart="1203.00"  departLane="random" departSpeed="max" from="calgary1" to="calgary2"/>
<trip id="veh42" type="veh_passenger2" depart="1206.00"  departLane="random" departSpeed="max" from="calgary1" to="calgary2"/>
<trip id="veh43" type="veh_passenger2" depart="1209.00"  departLane="random" departSpeed="max" from="calgary1" to="calgary2"/>
<trip id="veh44" type="veh_passenger2" depart="1212.00"  departLane="random" departSpeed="max" from="calgary1" to="calgary2"/>
<trip id="veh50" type="veh_passenger3" depart="1500.00"  departLane="random" departSpeed="max" from="calgary1" to="calgary2"/>
<trip id="veh51" type="veh_passenger3" depart="1503.00"  departLane="random" departSpeed="max" from="calgary1" to="calgary2"/>
<trip id="veh52" type="veh_passenger3" depart="1506.00"  departLane="random" departSpeed="max" from="calgary1" to="calgary2"/>
<trip id="veh53" type="veh_passenger3" depart="1509.00"  departLane="random" departSpeed="max" from="calgary1" to="calgary2"/>
<trip id="veh54" type="veh_passenger3" depart="1512.00"  departLane="random" departSpeed="max" from="calgary1" to="calgary2"/>
<trip id="veh60" type="veh_passenger1" depart="1800.00"  departLane="random" departSpeed="max" from="calgary1" to="calgary2"/>
<trip id="veh61" type="veh_passenger1" depart="1803.00"  departLane="random" departSpeed="max" from="calgary1" to="calgary2"/>
<trip id="veh62" type="veh_passenger1" depart="1806.00"  departLane="random" departSpeed="max" from="calgary1" to="calgary2"/>
<trip id="veh63" type="veh_passenger1" depart="1809.00"  departLane="random" departSpeed="max" from="calgary1" to="calgary2"/>
<trip id="veh64" type="veh_passenger1" depart="1812.00"  departLane="random" departSpeed="max" from="calgary1" to="calgary2"/>
<trip id="veh70" type="veh_passenger2" depart="2100.00"  departLane="random" departSpeed="max" from="calgary1" to="calgary2"/>
<trip id="veh71" type="veh_passenger2" depart="2103.00"  departLane="random" departSpeed="max" from="calgary1" to="calgary2"/>
<trip id="veh72" type="veh_passenger2" depart="2106.00"  departLane="random" departSpeed="max" from="calgary1" to="calgary2"/>
<trip id="veh73" type="veh_passenger2" depart="2109.00"  departLane="random" departSpeed="max" from="calgary1" to="calgary2"/>
<trip id="veh74" type="veh_passenger2" depart="2112.00"  departLane="random" departSpeed="max" from="calgary1" to="calgary2"/>
<trip id="veh80" type="veh_passenger1" depart="2400.00"  departLane="random" departSpeed="max" from="calgary1" to="calgary2"/>
<trip id="veh81" type="veh_passenger1" depart="2403.00"  departLane="random" departSpeed="max" from="calgary1" to="calgary2"/>
<trip id="veh82" type="veh_passenger1" depart="2406.00"  departLane="random" departSpeed="max" from="calgary1" to="calgary2"/>
<trip id="veh83" type="veh_passenger1" depart="2409.00"  departLane="random" departSpeed="max" from="calgary1" to="calgary2"/>
<trip id="veh84" type="veh_passenger1" depart="2412.00"  departLane="random" departSpeed="max" from="calgary1" to="calgary2"/>
<trip id="veh90" type="veh_passenger3" depart="2700.00"  departLane="random" departSpeed="max" from="calgary1" to="calgary2"/>
<trip id="veh91" type="veh_passenger3" depart="2703.00"  departLane="random" departSpeed="max" from="calgary1" to="calgary2"/>
<trip id="veh92" type="veh_passenger3" depart="2706.00"  departLane="random" departSpeed="max" from="calgary1" to="calgary2"/>
<trip id="veh93" type="veh_passenger3" depart="2709.00"  departLane="random" departSpeed="max" from="calgary1" to="calgary2"/>
<trip id="veh94" type="veh_passenger3" depart="2712.00"  departLane="random" departSpeed="max" from="calgary1" to="calgary2"/>
<trip id="veh100" type="veh_passenger3" depart="3000.00"  departLane="random" departSpeed="max" from="calgary1" to="calgary2"/>
<trip id="veh101" type="veh_passenger3" depart="3003.00"  departLane="random" departSpeed="max" from="calgary1" to="calgary2"/>
<trip id="veh102" type="veh_passenger3" depart="3006.00"  departLane="random" departSpeed="max" from="calgary1" to="calgary2"/>
<trip id="veh103" type="veh_passenger3" depart="3009.00"  departLane="random" departSpeed="max" from="calgary1" to="calgary2"/>
<trip id="veh104" type="veh_passenger3" depart="3012.00"  departLane="random" departSpeed="max" from="calgary1" to="calgary2"/>
<trip id="veh110" type="veh_passenger3" depart="3300.00"  departLane="random" departSpeed="max" from="calgary1" to="calgary2"/>
<trip id="veh111" type="veh_passenger3" depart="3303.00"  departLane="random" departSpeed="max" from="calgary1" to="calgary2"/>
<trip id="veh112" type="veh_passenger3" depart="3306.00"  departLane="random" departSpeed="max" from="calgary1" to="calgary2"/>
<trip id="veh113" type="veh_passenger3" depart="3309.00"  departLane="random" departSpeed="max" from="calgary1" to="calgary2"/>
<trip id="veh114" type="veh_passenger3" depart="3312.00"  departLane="random" departSpeed="max" from="calgary1" to="calgary2"/>
<trip id="veh120" type="veh_passenger3" depart="3600.00"  departLane="random" departSpeed="max" from="calgary1" to="calgary2"/>
<trip id="veh121" type="veh_passenger3" depart="3603.00"  departLane="random" departSpeed="max" from="calgary1" to="calgary2"/>
<trip id="veh122" type="veh_passenger3" depart="3606.00"  departLane="random" departSpeed="max" from="calgary1" to="calgary2"/>
<trip id="veh123" type="veh_passenger3" depart="3609.00"  departLane="random" departSpeed="max" from="calgary1" to="calgary2"/>
<trip id="veh124" type="veh_passenger3" depart="3612.00"  departLane="random" departSpeed="max" from="calgary1" to="calgary2"/>
<trip id="veh130" type="veh_passenger2" depart="3900.00"  departLane="random" departSpeed="max" from="calgary1" to="calgary2"/>
<trip id="veh131" type="veh_passenger2" depart="3903.00"  departLane="random" departSpeed="max" from="calgary1" to="calgary2"/>
<trip id="veh132" type="veh_passenger2" depart="3906.00"  departLane="random" departSpeed="max" from="calgary1" to="calgary2"/>
<trip id="veh133" type="veh_passenger2" depart="3909.00"  departLane="random" departSpeed="max" from="calgary1" to="calgary2"/>
<trip id="veh134" type="veh_passenger2" depart="3912.00"  departLane="random" departSpeed="max" from="calgary1" to="calgary2"/>
<trip id="veh140" type="veh_passenger3" depart="4200.00"  departLane="random" departSpeed="max" from="calgary1" to="calgary2"/>
<trip id="veh141" type="veh_passenger3" depart="4203.00"  departLane="random" departSpeed="max" from="calgary1" to="calgary2"/>
<trip id="veh142" type="veh_passenger3" depart="4206.00"  departLane="random" departSpeed="max" from="calgary1" to="calgary2"/>
<trip id="veh143" type="veh_passenger3" depart="4209.00"  departLane="random" departSpeed="max" from="calgary1" to="calgary2"/>
<trip id="veh144" type="veh_passenger3" depart="4212.00"  departLane="random" departSpeed="max" from="calgary1" to="calgary2"/>
<trip id="veh150" type="veh_passenger1" depart="4500.00"  departLane="random" departSpeed="max" from="calgary1" to="calgary2"/>
<trip id="veh151" type="veh_passenger1" depart="4503.00"  departLane="random" departSpeed="max" from="calgary1" to="calgary2"/>
<trip id="veh152" type="veh_passenger1" depart="4506.00"  departLane="random" departSpeed="max" from="calgary1" to="calgary2"/>
<trip id="veh153" type="veh_passenger1" depart="4509.00"  departLane="random" departSpeed="max" from="calgary1" to="calgary2"/>
<trip id="veh154" type="veh_passenger1" depart="4512.00"  departLane="random" departSpeed="max" from="calgary1" to="calgary2"/>
<trip id="veh160" type="veh_passenger2" depart="4800.00"  departLane="random" departSpeed="max" from="calgary1" to="calgary2"/>
<trip id="veh161" type="veh_passenger2" depart="4803.00"  departLane="random" departSpeed="max" from="calgary1" to="calgary2"/>
<trip id="veh162" type="veh_passenger2" depart="4806.00"  departLane="random" departSpeed="max" from="calgary1" to="calgary2"/>
<trip id="veh163" type="veh_passenger2" depart="4809.00"  departLane="random" departSpeed="max" from="calgary1" to="calgary2"/>
<trip id="veh164" type="veh_passenger2" depart="4812.00"  departLane="random" departSpeed="max" from="calgary1" to="calgary2"/>
<trip id="veh170" type="veh_passenger1" depart="5100.00"  departLane="random" departSpeed="max" from="calgary1" to="calgary2"/>
<trip id="veh171" type="veh_passenger1" depart="5103.00"  departLane="random" departSpeed="max" from="calgary1" to="calgary2"/>
<trip id="veh172" type="veh_passenger1" depart="5106.00"  departLane="random" departSpeed="max" from="calgary1" to="calgary2"/>
<trip id="veh173" type="veh_passenger1" depart="5109.00"  departLane="random" departSpeed="max" from="calgary1" to="calgary2"/>
<trip id="veh174" type="veh_passenger1" depart="5112.00"  departLane="random" departSpeed="max" from="calgary1" to="calgary2"/>
<trip id="veh180" type="veh_passenger2" depart="5400.00"  departLane="random" departSpeed="max" from="calgary1" to="calgary2"/>
<trip id="veh181" type="veh_passenger2" depart="5403.00"  departLane="random" departSpeed="max" from="calgary1" to="calgary2"/>
<trip id="veh182" type="veh_passenger2" depart="5406.00"  departLane="random" departSpeed="max" from="calgary1" to="calgary2"/>
<trip id="veh183" type="veh_passenger2" depart="5409.00"  departLane="random" departSpeed="max" from="calgary1" to="calgary2"/>
<trip id="veh184" type="veh_passenger2" depart="5412.00"  departLane="random" departSpeed="max" from="calgary1" to="calgary2"/>
<trip id="veh190" type="veh_passenger2" depart="5700.00"  departLane="random" departSpeed="max" from="calgary1" to="calgary2"/>
<trip id="veh191" type="veh_passenger2" depart="5703.00"  departLane="random" departSpeed="max" from="calgary1" to="calgary2"/>
<trip id="veh192" type="veh_passenger2" depart="5706.00"  departLane="random" departSpeed="max" from="calgary1" to="calgary2"/>
<trip id="veh193" type="veh_passenger2" depart="5709.00"  departLane="random" departSpeed="max" from="calgary1" to="calgary2"/>
<trip id="veh194" type="veh_passenger2" depart="5712.00"  departLane="random" departSpeed="max" from="calgary1" to="calgary2"/>
<trip id="veh200" type="veh_passenger1" depart="6000.00"  departLane="random" departSpeed="max" from="calgary1" to="calgary2"/>
<trip id="veh201" type="veh_passenger1" depart="6003.00"  departLane="random" departSpeed="max" from="calgary1" to="calgary2"/>
<trip id="veh202" type="veh_passenger1" depart="6006.00"  departLane="random" departSpeed="max" from="calgary1" to="calgary2"/>
<trip id="veh203" type="veh_passenger1" depart="6009.00"  departLane="random" departSpeed="max" from="calgary1" to="calgary2"/>
<trip id="veh204" type="veh_passenger1" depart="6012.00"  departLane="random" departSpeed="max" from="calgary1" to="calgary2"/>
<trip id="veh210" type="veh_passenger1" depart="6300.00"  departLane="random" departSpeed="max" from="calgary1" to="calgary2"/>
<trip id="veh211" type="veh_passenger1" depart="6303.00"  departLane="random" departSpeed="max" from="calgary1" to="calgary2"/>
<trip id="veh212" type="veh_passenger1" depart="6306.00"  departLane="random" departSpeed="max" from="calgary1" to="calgary2"/>
<trip id="veh213" type="veh_passenger1" depart="6309.00"  departLane="random" departSpeed="max" from="calgary1" to="calgary2"/>
<trip id="veh214" type="veh_passenger1" depart="6312.00"  departLane="random" departSpeed="max" from="calgary1" to="calgary2"/>
<trip id="veh220" type="veh_passenger3" depart="6600.00"  departLane="random" departSpeed="max" from="calgary1" to="calgary2"/>
<trip id="veh221" type="veh_passenger3" depart="6603.00"  departLane="random" departSpeed="max" from="calgary1" to="calgary2"/>
<trip id="veh222" type="veh_passenger3" depart="6606.00"  departLane="random" departSpeed="max" from="calgary1" to="calgary2"/>
<trip id="veh223" type="veh_passenger3" depart="6609.00"  departLane="random" departSpeed="max" from="calgary1" to="calgary2"/>
<trip id="veh224" type="veh_passenger3" depart="6612.00"  departLane="random" departSpeed="max" from="calgary1" to="calgary2"/>
<trip id="veh230" type="veh_passenger2" depart="6900.00"  departLane="random" departSpeed="max" from="calgary1" to="calgary2"/>
<trip id="veh231" type="veh_passenger2" depart="6903.00"  departLane="random" departSpeed="max" from="calgary1" to="calgary2"/>
<trip id="veh232" type="veh_passenger2" depart="6906.00"  departLane="random" departSpeed="max" from="calgary1" to="calgary2"/>
<trip id="veh233" type="veh_passenger2" depart="6909.00"  departLane="random" departSpeed="max" from="calgary1" to="calgary2"/>
<trip id="veh234" type="veh_passenger2" depart="6912.00"  departLane="random" departSpeed="max" from="calgary1" to="calgary2"/>
<trip id="veh240" type="veh_passenger3" depart="7200.00"  departLane="random" departSpeed="max" from="calgary1" to="calgary2"/>
<trip id="veh241" type="veh_passenger3" depart="7203.00"  departLane="random" departSpeed="max" from="calgary1" to="calgary2"/>
<trip id="veh242" type="veh_passenger3" depart="7206.00"  departLane="random" departSpeed="max" from="calgary1" to="calgary2"/>
<trip id="veh243" type="veh_passenger3" depart="7209.00"  departLane="random" departSpeed="max" from="calgary1" to="calgary2"/>
<trip id="veh244" type="veh_passenger3" depart="7212.00"  departLane="random" departSpeed="max" from="calgary1" to="calgary2"/>
<trip id="veh250" type="veh_passenger1" depart="7500.00"  departLane="random" departSpeed="max" from="calgary1" to="calgary2"/>
<trip id="veh251" type="veh_passenger1" depart="7503.00"  departLane="random" departSpeed="max" from="calgary1" to="calgary2"/>
<trip id="veh252" type="veh_passenger1" depart="7506.00"  departLane="random" departSpeed="max" from="calgary1" to="calgary2"/>
<trip id="veh253" type="veh_passenger1" depart="7509.00"  departLane="random" departSpeed="max" from="calgary1" to="calgary2"/>
<trip id="veh254" type="veh_passenger1" depart="7512.00"  departLane="random" departSpeed="max" from="calgary1" to="calgary2"/>
<trip id="veh260" type="veh_passenger1" depart="7800.00"  departLane="random" departSpeed="max" from="calgary1" to="calgary2"/>
<trip id="veh261" type="veh_passenger1" depart="7803.00"  departLane="random" departSpeed="max" from="calgary1" to="calgary2"/>
<trip id="veh262" type="veh_passenger1" depart="7806.00"  departLane="random" departSpeed="max" from="calgary1" to="calgary2"/>
<trip id="veh263" type="veh_passenger1" depart="7809.00"  departLane="random" departSpeed="max" from="calgary1" to="calgary2"/>
<trip id="veh264" type="veh_passenger1" depart="7812.00"  departLane="random" departSpeed="max" from="calgary1" to="calgary2"/>
<trip id="veh270" type="veh_passenger2" depart="8100.00"  departLane="random" departSpeed="max" from="calgary1" to="calgary2"/>
<trip id="veh271" type="veh_passenger2" depart="8103.00"  departLane="random" departSpeed="max" from="calgary1" to="calgary2"/>
<trip id="veh272" type="veh_passenger2" depart="8106.00"  departLane="random" departSpeed="max" from="calgary1" to="calgary2"/>
<trip id="veh273" type="veh_passenger2" depart="8109.00"  departLane="random" departSpeed="max" from="calgary1" to="calgary2"/>
<trip id="veh274" type="veh_passenger2" depart="8112.00"  departLane="random" departSpeed="max" from="calgary1" to="calgary2"/>
<trip id="veh280" type="veh_passenger1" depart="8400.00"  departLane="random" departSpeed="max" from="calgary1" to="calgary2"/>
<trip id="veh281" type="veh_passenger1" depart="8403.00"  departLane="random" departSpeed="max" from="calgary1" to="calgary2"/>
<trip id="veh282" type="veh_passenger1" depart="8406.00"  departLane="random" departSpeed="max" from="calgary1" to="calgary2"/>
<trip id="veh283" type="veh_passenger1" depart="8409.00"  departLane="random" departSpeed="max" from="calgary1" to="calgary2"/>
<trip id="veh284" type="veh_passenger1" depart="8412.00"  departLane="random" departSpeed="max" from="calgary1" to="calgary2"/>
<trip id="veh290" type="veh_passenger3" depart="8700.00"  departLane="random" departSpeed="max" from="calgary1" to="calgary2"/>
<trip id="veh291" type="veh_passenger3" depart="8703.00"  departLane="random" departSpeed="max" from="calgary1" to="calgary2"/>
<trip id="veh292" type="veh_passenger3" depart="8706.00"  departLane="random" departSpeed="max" from="calgary1" to="calgary2"/>
<trip id="veh293" type="veh_passenger3" depart="8709.00"  departLane="random" departSpeed="max" from="calgary1" to="calgary2"/>
<trip id="veh294" type="veh_passenger3" depart="8712.00"  departLane="random" departSpeed="max" from="calgary1" to="calgary2"/>
<trip id="veh300" type="veh_passenger1" depart="9000.00"  departLane="random" departSpeed="max" from="calgary1" to="calgary2"/>
<trip id="veh301" type="veh_passenger1" depart="9003.00"  departLane="random" departSpeed="max" from="calgary1" to="calgary2"/>
<trip id="veh302" type="veh_passenger1" depart="9006.00"  departLane="random" departSpeed="max" from="calgary1" to="calgary2"/>
<trip id="veh303" type="veh_passenger1" depart="9009.00"  departLane="random" departSpeed="max" from="calgary1" to="calgary2"/>
<trip id="veh304" type="veh_passenger1" depart="9012.00"  departLane="random" departSpeed="max" from="calgary1" to="calgary2"/>
<trip id="veh310" type="veh_passenger3" depart="9300.00"  departLane="random" departSpeed="max" from="calgary1" to="calgary2"/>
<trip id="veh311" type="veh_passenger3" depart="9303.00"  departLane="random" departSpeed="max" from="calgary1" to="calgary2"/>
<trip id="veh312" type="veh_passenger3" depart="9306.00"  departLane="random" departSpeed="max" from="calgary1" to="calgary2"/>
<trip id="veh313" type="veh_passenger3" depart="9309.00"  departLane="random" departSpeed="max" from="calgary1" to="calgary2"/>
<trip id="veh314" type="veh_passenger3" depart="9312.00"  departLane="random" departSpeed="max" from="calgary1" to="calgary2"/>
<trip id="veh320" type="veh_passenger1" depart="9600.00"  departLane="random" departSpeed="max" from="calgary1" to="calgary2"/>
<trip id="veh321" type="veh_passenger1" depart="9603.00"  departLane="random" departSpeed="max" from="calgary1" to="calgary2"/>
<trip id="veh322" type="veh_passenger1" depart="9606.00"  departLane="random" departSpeed="max" from="calgary1" to="calgary2"/>
<trip id="veh323" type="veh_passenger1" depart="9609.00"  departLane="random" departSpeed="max" from="calgary1" to="calgary2"/>
<trip id="veh324" type="veh_passenger1" depart="9612.00"  departLane="random" departSpeed="max" from="calgary1" to="calgary2"/>
<trip id="veh330" type="veh_passenger1" depart="9900.00"  departLane="random" departSpeed="max" from="calgary1" to="calgary2"/>
<trip id="veh331" type="veh_passenger1" depart="9903.00"  departLane="random" departSpeed="max" from="calgary1" to="calgary2"/>
<trip id="veh332" type="veh_passenger1" depart="9906.00"  departLane="random" departSpeed="max" from="calgary1" to="calgary2"/>
<trip id="veh333" type="veh_passenger1" depart="9909.00"  departLane="random" departSpeed="max" from="calgary1" to="calgary2"/>
<trip id="veh334" type="veh_passenger1" depart="9912.00"  departLane="random" departSpeed="max" from="calgary1" to="calgary2"/>
<trip id="veh340" type="veh_passenger1" depart="10200.00"  departLane="random" departSpeed="max" from="calgary1" to="calgary2"/>
<trip id="veh341" type="veh_passenger1" depart="10203.00"  departLane="random" departSpeed="max" from="calgary1" to="calgary2"/>
<trip id="veh342" type="veh_passenger1" depart="10206.00"  departLane="random" departSpeed="max" from="calgary1" to="calgary2"/>
<trip id="veh343" type="veh_passenger1" depart="10209.00"  departLane="random" departSpeed="max" from="calgary1" to="calgary2"/>
<trip id="veh344" type="veh_passenger1" depart="10212.00"  departLane="random" departSpeed="max" from="calgary1" to="calgary2"/>
<trip id="veh350" type="veh_passenger2" depart="10500.00"  departLane="random" departSpeed="max" from="calgary1" to="calgary2"/>
<trip id="veh351" type="veh_passenger2" depart="10503.00"  departLane="random" departSpeed="max" from="calgary1" to="calgary2"/>
<trip id="veh352" type="veh_passenger2" depart="10506.00"  departLane="random" departSpeed="max" from="calgary1" to="calgary2"/>
<trip id="veh353" type="veh_passenger2" depart="10509.00"  departLane="random" departSpeed="max" from="calgary1" to="calgary2"/>
<trip id="veh354" type="veh_passenger2" depart="10512.00"  departLane="random" departSpeed="max" from="calgary1" to="calgary2"/>
<trip id="veh360" type="veh_passenger3" depart="10800.00"  departLane="random" departSpeed="max" from="calgary1" to="calgary2"/>
<trip id="veh361" type="veh_passenger3" depart="10803.00"  departLane="random" departSpeed="max" from="calgary1" to="calgary2"/>
<trip id="veh362" type="veh_passenger3" depart="10806.00"  departLane="random" departSpeed="max" from="calgary1" to="calgary2"/>
<trip id="veh363" type="veh_passenger3" depart="10809.00"  departLane="random" departSpeed="max" from="calgary1" to="calgary2"/>
<trip id="veh364" type="veh_passenger3" depart="10812.00"  departLane="random" departSpeed="max" from="calgary1" to="calgary2"/>
<trip id="veh370" type="veh_passenger2" depart="11100.00"  departLane="random" departSpeed="max" from="calgary1" to="calgary2"/>
<trip id="veh371" type="veh_passenger2" depart="11103.00"  departLane="random" departSpeed="max" from="calgary1" to="calgary2"/>
<trip id="veh372" type="veh_passenger2" depart="11106.00"  departLane="random" departSpeed="max" from="calgary1" to="calgary2"/>
<trip id="veh373" type="veh_passenger2" depart="11109.00"  departLane="random" departSpeed="max" from="calgary1" to="calgary2"/>
<trip id="veh374" type="veh_passenger2" depart="11112.00"  departLane="random" departSpeed="max" from="calgary1" to="calgary2"/>
<trip id="veh380" type="veh_passenger3" depart="11400.00"  departLane="random" departSpeed="max" from="calgary1" to="calgary2"/>
<trip id="veh381" type="veh_passenger3" depart="11403.00"  departLane="random" departSpeed="max" from="calgary1" to="calgary2"/>
<trip id="veh382" type="veh_passenger3" depart="11406.00"  departLane="random" departSpeed="max" from="calgary1" to="calgary2"/>
<trip id="veh383" type="veh_passenger3" depart="11409.00"  departLane="random" departSpeed="max" from="calgary1" to="calgary2"/>
<trip id="veh384" type="veh_passenger3" depart="11412.00"  departLane="random" departSpeed="max" from="calgary1" to="calgary2"/>
<trip id="veh390" type="veh_passenger1" depart="11700.00"  departLane="random" departSpeed="max" from="calgary1" to="calgary2"/>
<trip id="veh391" type="veh_passenger1" depart="11703.00"  departLane="random" departSpeed="max" from="calgary1" to="calgary2"/>
<trip id="veh392" type="veh_passenger1" depart="11706.00"  departLane="random" departSpeed="max" from="calgary1" to="calgary2"/>
<trip id="veh393" type="veh_passenger1" depart="11709.00"  departLane="random" departSpeed="max" from="calgary1" to="calgary2"/>
<trip id="veh394" type="veh_passenger1" depart="11712.00"  departLane="random" departSpeed="max" from="calgary1" to="calgary2"/>
<trip id="veh400" type="veh_passenger1" depart="12000.00"  departLane="random" departSpeed="max" from="calgary1" to="calgary2"/>
<trip id="veh401" type="veh_passenger1" depart="12003.00"  departLane="random" departSpeed="max" from="calgary1" to="calgary2"/>
<trip id="veh402" type="veh_passenger1" depart="12006.00"  departLane="random" departSpeed="max" from="calgary1" to="calgary2"/>
<trip id="veh403" type="veh_passenger1" depart="12009.00"  departLane="random" departSpeed="max" from="calgary1" to="calgary2"/>
<trip id="veh404" type="veh_passenger1" depart="12012.00"  departLane="random" departSpeed="max" from="calgary1" to="calgary2"/>
<trip id="veh410" type="veh_passenger3" depart="12300.00"  departLane="random" departSpeed="max" from="calgary1" to="calgary2"/>
<trip id="veh411" type="veh_passenger3" depart="12303.00"  departLane="random" departSpeed="max" from="calgary1" to="calgary2"/>
<trip id="veh412" type="veh_passenger3" depart="12306.00"  departLane="random" departSpeed="max" from="calgary1" to="calgary2"/>
<trip id="veh413" type="veh_passenger3" depart="12309.00"  departLane="random" departSpeed="max" from="calgary1" to="calgary2"/>
<trip id="veh414" type="veh_passenger3" depart="12312.00"  departLane="random" departSpeed="max" from="calgary1" to="calgary2"/>
<trip id="veh420" type="veh_passenger3" depart="12600.00"  departLane="random" departSpeed="max" from="calgary1" to="calgary2"/>
<trip id="veh421" type="veh_passenger3" depart="12603.00"  departLane="random" departSpeed="max" from="calgary1" to="calgary2"/>
<trip id="veh422" type="veh_passenger3" depart="12606.00"  departLane="random" departSpeed="max" from="calgary1" to="calgary2"/>
<trip id="veh423" type="veh_passenger3" depart="12609.00"  departLane="random" departSpeed="max" from="calgary1" to="calgary2"/>
<trip id="veh424" type="veh_passenger3" depart="12612.00"  departLane="random" departSpeed="max" from="calgary1" to="calgary2"/>
<trip id="veh430" type="veh_passenger1" depart="12900.00"  departLane="random" departSpeed="max" from="calgary1" to="calgary2"/>
<trip id="veh431" type="veh_passenger1" depart="12903.00"  departLane="random" departSpeed="max" from="calgary1" to="calgary2"/>
<trip id="veh432" type="veh_passenger1" depart="12906.00"  departLane="random" departSpeed="max" from="calgary1" to="calgary2"/>
<trip id="veh433" type="veh_passenger1" depart="12909.00"  departLane="random" departSpeed="max" from="calgary1" to="calgary2"/>
<trip id="veh434" type="veh_passenger1" depart="12912.00"  departLane="random" departSpeed="max" from="calgary1" to="calgary2"/>