<?xml version="1.0" encoding="UTF-8"?>

<!-- generated on Thu Apr 15 18:00:30 2021 by Eclipse SUMO polyconvert Version 1.8.0
<configuration xmlns:xsi="http://www.w3.org/2001/XMLSchema-instance" xsi:noNamespaceSchemaLocation="http://sumo.dlr.de/xsd/polyconvertConfiguration.xsd">

    <input>
        <net-file value="osm.net.xml"/>
        <osm-files value="osm_bbox.osm.xml"/>
        <osm.keep-full-type value="true"/>
        <type-file value="/usr/share/sumo/data/typemap/osmPolyconvert.typ.xml"/>
    </input>

    <output>
        <output-file value="osm.poly.xml"/>
    </output>

    <processing>
        <poi-layer-offset value="5"/>
    </processing>

    <report>
        <verbose value="true"/>
    </report>

</configuration>
-->

<additional xmlns:xsi="http://www.w3.org/2001/XMLSchema-instance" xsi:noNamespaceSchemaLocation="http://sumo.dlr.de/xsd/additional_file.xsd">
    <location netOffset="-703524.97,-5658752.81" convBoundary="-37251.27,-11683.18,9699.05,18265.82" origBoundary="-114.619258,50.935938,-113.965187,51.219267" projParameter="+proj=utm +zone=11 +ellps=WGS84 +datum=WGS84 +units=m +no_defs"/>

    <poly id="100406162" type="building.commercial" color="255,230,230" fill="1" layer="-1.00" shape="1925.594321,612.145468 1948.500766,612.567744 1955.346426,612.684492 1980.160283,613.149470 1983.894262,612.797126 1983.881651,572.409747 1925.472143,572.911802 1925.571772,603.370146 1925.594321,612.145468"/>
    <poly id="100406163" type="building.yes" color="255,230,230" fill="1" layer="-1.00" shape="2106.143699,519.902099 2155.263468,520.746504 2154.819560,546.495398 2105.700479,545.639873 2105.875979,535.424865 2106.143699,519.902099"/>
    <poly id="106935663" type="amenity.studio" color="237,199,199" fill="1" layer="-1.00" shape="1589.251381,302.950254 1589.010966,333.717842 1594.256488,338.781229 1619.656529,338.655269 1619.609320,303.121587 1589.251381,302.950254"/>
    <poly id="106935663#1" type="building.yes" color="255,230,230" fill="1" layer="-1.00" shape="1589.251381,302.950254 1589.010966,333.717842 1594.256488,338.781229 1619.656529,338.655269 1619.609320,303.121587 1589.251381,302.950254"/>
    <poly id="106935664" type="building.commercial" color="255,230,230" fill="1" layer="-1.00" shape="1478.592541,314.141475 1479.141969,312.326031 1481.442022,310.791707 1489.364625,307.131300 1499.827770,304.540597 1510.579098,303.353239 1521.501493,304.043380 1536.254479,307.959037 1541.851401,310.363932 1543.830650,311.956954 1544.546303,313.377271 1543.805364,315.418932 1542.019541,318.142841 1540.806537,319.876232 1540.688688,322.488272 1542.367789,324.392279 1543.873714,326.768209 1544.236888,329.109857 1543.086074,330.867989 1538.407777,333.254242 1529.192226,336.774110 1519.973320,338.612477 1510.786672,339.639288 1501.995609,339.189744 1492.515709,336.998057 1484.090010,333.712505 1479.499094,331.603747 1478.529167,329.516373 1479.235038,327.473310 1481.940412,322.803890 1481.835121,320.684059 1478.933634,315.803005 1478.592541,314.141475"/>
    <poly id="106935665" type="building.yes" color="255,230,230" fill="1" layer="-1.00" shape="1591.750589,513.222810 1613.290263,512.898864 1613.738959,547.335021 1610.190335,547.438898 1591.878270,547.969108 1591.750589,513.222810"/>
    <poly id="116272463" type="building.yes" color="255,230,230" fill="1" layer="-1.00" shape="1479.269774,507.494052 1567.586229,506.828318 1567.533451,509.921751 1567.455294,515.419336 1567.483390,518.950249 1564.979411,518.906389 1564.892100,521.809154 1563.690680,521.839343 1563.552611,524.606470 1562.082688,524.681661 1562.576155,548.641532 1497.328635,547.250916 1497.276063,548.573891 1492.858049,548.654436 1492.752509,549.897362 1489.241966,550.103050 1482.217908,550.235941 1479.330671,550.299378 1479.275822,510.344850 1479.269774,507.494052"/>
    <poly id="117742427" type="building.commercial" color="255,230,230" fill="1" layer="-1.00" shape="1835.866739,620.253829 1836.156960,651.755286 1875.579727,651.609847 1874.980452,620.296499 1837.614294,620.256579 1835.866739,620.253829"/>
    <poly id="121980946" type="building.commercial" color="255,230,230" fill="1" layer="-1.00" shape="1073.045452,237.125437 1103.937350,237.994123 1104.124174,199.830987 1073.461950,199.182985 1073.045452,237.125437"/>
    <poly id="121989500" type="building.yes" color="255,230,230" fill="1" layer="-1.00" shape="2032.574593,519.297740 2032.639681,545.322991 2032.637118,547.149040 2074.417963,547.210363 2074.417279,543.880948 2074.354857,519.203134 2032.574593,519.297740"/>
    <poly id="121989502" type="building.commercial" color="255,230,230" fill="1" layer="-1.00" shape="1872.488785,574.810846 1913.915991,574.578433 1913.831584,603.314647 1913.827807,604.995889 1872.472396,605.899248 1872.488785,574.810846"/>
    <poly id="122084723" type="building.commercial" color="255,230,230" fill="1" layer="-1.00" shape="1597.588150,228.487859 1597.494773,233.661923 1646.673868,232.365755 1711.206596,232.771953 1711.347415,196.054269 1732.621182,195.920587 1732.650770,191.824077 1732.983600,170.046084 1730.573141,170.117226 1730.429228,168.441248 1704.185490,168.755864 1705.236463,195.276731 1696.728717,217.876485 1676.560704,217.742502 1668.184391,195.384347 1668.692808,187.365088 1632.008346,187.053320 1632.740908,190.166843 1630.827438,219.932578 1627.111918,230.407648 1601.313331,230.128038 1598.253985,219.684272 1596.501845,187.657169 1592.041026,187.747083 1592.575111,228.344253 1597.588150,228.487859"/>
    <poly id="122085148" type="building.yes" color="255,230,230" fill="1" layer="-1.00" shape="1953.635165,651.422023 1963.535023,653.096850 1966.409716,651.585629 1971.895542,652.360884 1974.013053,650.652482 1982.707968,652.446378 1984.828869,651.005356 1986.139173,640.312212 1984.771931,637.986197 1985.753426,629.028160 1984.427836,627.594610 1985.654521,618.824501 1984.807608,616.474673 1980.143487,615.509435 1980.160283,613.149470 1955.346426,612.684492 1955.140630,616.618107 1952.883786,617.419028 1951.855048,627.388476 1953.345942,629.429895 1951.704460,638.395053 1953.208114,640.292224 1951.854234,649.614024 1953.635165,651.422023"/>
    <poly id="122085149" type="building.apartments" color="255,230,230" fill="1" layer="-1.00" shape="2183.995557,823.074003 2183.992332,826.147161 2182.153300,826.151777 2182.142521,833.110783 2183.932055,833.115329 2183.922431,840.397299 2185.613861,840.397933 2185.604676,847.668786 2187.078876,847.660759 2187.069160,855.120888 2188.999277,855.119906 2188.988398,862.257071 2217.614679,862.307402 2217.675338,823.125395 2183.995557,823.074003"/>
    <poly id="122085150" type="building.apartments" color="255,230,230" fill="1" layer="-1.00" shape="2272.099824,862.287006 2316.756311,861.986358 2317.183441,821.905846 2279.069363,822.345016 2271.690425,822.406980 2272.099824,862.287006"/>
    <poly id="122803594" type="building.civic" color="255,230,230" fill="1" layer="-1.00" shape="2762.552791,332.666320 2762.553978,334.392318 2760.279814,334.390479 2754.341225,334.398034 2754.343083,331.191180 2754.371465,329.076633 2754.586819,304.376308 2756.780796,304.452884 2756.841338,295.213116 2810.880225,296.160053 2830.376593,316.426287 2830.027845,330.587421 2832.645408,330.603024 2832.614326,332.784276 2828.275006,332.644138 2762.552791,332.666320"/>
    <poly id="126598891" type="natural.water" color="181,209,209" fill="1" layer="-4.00" shape="3675.472549,606.884206 3681.051097,606.573750 3702.152735,608.434577 3713.158789,605.458113 3724.540972,603.777340 3749.880213,596.076322 3769.924950,587.906585 3770.894808,587.177215 3770.777990,585.891960 3758.209361,585.130875 3750.495802,582.850029 3750.035492,582.252500 3750.890545,581.585327 3754.244100,581.274643 3753.721565,577.334019 3736.204959,575.861982 3727.775141,576.558933 3699.069351,584.893181 3693.434951,584.321687 3689.445561,585.609050 3680.860099,592.279483 3677.754700,599.170010 3674.241502,603.805964 3675.472549,606.884206"/>
    <poly id="127289241" type="leisure.park" color="207,245,201" fill="1" layer="-2.00" shape="2210.815086,1133.632581 2211.948805,1135.648712 2209.887258,1148.449811 2172.311843,1218.160304 2136.860586,1273.869802 2098.883020,1332.763643 2097.826053,1342.553799 2070.562057,1373.714247 2053.585205,1383.949980 2012.710389,1422.607775 1991.633940,1434.996430 1987.598531,1440.815181 1964.072115,1452.170977 1921.222219,1465.039845 1871.881683,1470.145543 1849.529649,1467.351393 1836.928549,1471.871576 1796.805576,1470.196281 1745.599433,1463.292134 1707.217726,1452.422481 1678.154334,1435.755024 1647.023168,1427.490388 1632.589953,1419.500354 1620.609564,1411.240461 1596.220907,1404.947977 1553.591946,1382.452676 1524.775465,1364.849481 1373.758275,1249.057210 1308.763751,1188.150825 1285.371503,1151.957511 1271.079764,1125.523539 1270.788667,1115.178725 1277.363661,1106.008438 1295.026427,1103.925974 1309.713320,1106.268473 1335.031792,1127.183244 1384.963960,1146.459115 1417.219705,1153.141001 1452.315944,1173.464993 1512.838410,1192.361275 1522.171086,1191.507396 1528.609861,1193.188627 1532.273786,1196.351866 1574.390184,1201.422459 1583.037030,1199.461324 1609.777825,1206.103323 1623.886477,1206.742359 1643.669837,1209.745063 1658.237745,1207.306921 1732.855781,1215.330870 1785.160368,1224.850643 1838.117275,1229.263666 1865.946433,1231.652218 1909.688831,1237.825886 1918.427493,1234.443674 1934.056782,1214.700136 1942.876946,1213.325521 1969.731662,1214.985440 1982.582371,1212.145740 2002.347875,1209.782010 2024.663341,1213.521776 2042.027446,1212.599148 2075.659102,1197.593222 2087.877195,1186.154541 2111.562971,1172.422659 2116.131733,1165.556278 2120.901470,1157.873915 2144.068442,1149.766981 2160.169227,1136.356457 2176.282557,1126.153387 2187.756187,1123.537640 2210.815086,1133.632581"/>
    <poly id="127291336" type="waterway.weir" color="181,209,209" fill="0" layer="-4.00" shape="1939.685392,1201.127977 1939.551968,1206.768144"/>
    <poly id="127291337" type="waterway.weir" color="181,209,209" fill="0" layer="-4.00" shape="1939.030774,1210.867360 1938.921756,1216.775741"/>
    <poly id="127291338" type="natural.water" color="181,209,209" fill="1" layer="-4.00" shape="739.402385,754.172334 738.836156,756.065117 741.014407,763.622875 743.122743,768.160310 752.278407,781.183206 757.748283,786.967243 763.272294,791.383839 775.162236,799.337329 794.571810,810.049470 797.704657,813.703311 804.656240,816.628744 806.416112,815.963544 806.578791,815.045790 805.040982,811.521927 802.954093,809.457260 799.359154,808.078904 796.420083,805.557362 785.135383,785.334860 781.988979,777.237667 780.222719,774.873931 762.964680,759.982386 753.057112,755.136117 749.923147,754.522089 747.742272,755.716250 746.649962,755.828888 745.570821,755.786160 743.424020,755.233493 741.541477,753.856173 740.465417,753.735623 739.402385,754.172334"/>
    <poly id="127291339" type="natural.water" color="181,209,209" fill="1" layer="-4.00" shape="2129.086794,1138.981062 2128.908180,1139.764533 2130.101953,1140.803149 2131.239122,1141.149133 2132.277120,1140.990085 2133.537820,1140.349971 2134.011972,1139.723039 2133.438101,1139.154540 2131.550915,1138.433465 2131.133517,1138.517040 2129.086794,1138.981062"/>
    <poly id="127291340" type="natural.water" color="181,209,209" fill="1" layer="-4.00" shape="518.664633,640.491236 519.389544,642.925035 527.815574,652.411142 533.626539,666.793384 538.469933,676.004193 541.244438,687.304473 540.242337,698.444238 542.544915,702.866777 552.792931,708.516666 557.173335,712.219694 564.938275,716.412932 578.949724,727.166772 581.714794,726.107004 586.355377,729.441768 599.460189,734.904140 609.152413,737.392124 611.701140,738.784618 616.724685,743.437345 623.394711,747.097416 627.069486,748.233836 630.193061,750.706901 641.945531,757.530002 647.322117,759.290529 650.222707,759.594616 651.159531,759.509209 652.337507,757.941271 649.929408,746.789032 652.433820,741.320707 648.350352,733.309010 644.974323,729.411814 638.681248,724.029591 635.036033,719.130746 629.917548,713.861827 622.692444,708.442745 614.374940,701.009576 607.559632,696.230285 594.938014,689.551045 574.545053,677.241927 568.693109,673.124355 566.357055,669.903046 562.695641,669.669127 557.691063,666.130698 551.496433,663.046269 550.047594,660.461345 543.522974,655.782723 537.198754,652.247793 534.227705,648.400102 532.233424,643.989763 529.648879,641.549219 522.271822,637.482734 519.395562,637.981396 518.664633,640.491236"/>
    <poly id="127291344" type="natural.water" color="181,209,209" fill="1" layer="-4.00" shape="2151.390759,1135.271519 2150.648024,1135.241905 2149.178067,1134.793567 2147.602477,1134.530314 2146.808919,1134.543214 2146.287490,1135.123720 2145.820787,1135.739813 2145.019251,1135.952827 2144.282278,1135.778687 2142.818526,1135.174707 2141.183692,1135.165202 2140.450708,1134.891006 2140.286428,1134.082729 2139.734446,1132.613159 2139.647855,1131.440521 2141.157518,1130.364931 2146.782204,1129.052545 2147.442358,1128.689138 2148.182077,1128.618415 2149.716599,1128.679599 2150.465098,1128.564686 2151.210051,1128.538713 2151.946582,1128.723972 2152.469631,1129.334987 2152.836310,1129.995443 2153.412396,1130.508357 2154.045067,1130.834231 2154.060870,1131.669993 2153.490834,1132.237425 2153.072735,1132.866590 2152.895890,1133.605591 2152.233520,1134.024585 2152.103951,1134.810011 2151.390759,1135.271519"/>
    <poly id="127291347" type="natural.water" color="181,209,209" fill="1" layer="-4.00" shape="2118.667870,1158.096653 2116.031377,1163.848607 2112.947246,1166.041758 2107.492243,1172.605571 2101.846415,1177.090654 2096.845239,1178.784262 2088.298066,1177.708647 2083.609855,1175.072056 2083.137543,1171.779513 2088.626026,1164.727067 2092.810956,1160.094656 2103.547703,1152.193592 2111.034965,1147.993483 2116.360478,1147.671298 2122.077494,1147.386997 2123.508447,1148.813661 2118.667870,1158.096653"/>
    <poly id="127291348" type="natural.water" color="181,209,209" fill="1" layer="-4.00" shape="2133.042190,1233.753687 2132.410248,1233.761897 2128.151956,1237.066274 2127.876869,1239.037354 2127.349320,1243.292200 2129.984966,1244.778032 2131.117663,1244.355518 2130.771089,1241.958789 2134.926220,1238.249438 2138.948006,1236.828603 2139.844758,1235.283173 2139.380759,1233.015383 2140.250169,1230.043570 2139.352206,1228.627015 2137.553859,1229.022988 2135.795217,1232.471562 2133.042190,1233.753687"/>
    <poly id="127625869" type="building.commercial" color="255,230,230" fill="1" layer="-1.00" shape="2022.028647,618.046512 2025.803726,614.900932 2028.823438,612.393365 2041.652933,600.611406 2069.708275,600.404239 2080.060585,609.925274 2085.709277,609.961089 2091.903918,602.814271 2090.884803,581.539061 2085.858366,577.864600 2085.889355,572.331701 2089.446248,572.373236 2092.364554,572.411593 2092.326731,573.712890 2104.562868,585.101798 2104.353728,590.349221 2121.086181,590.359163 2121.090067,615.090339 2102.204131,615.050237 2093.405330,624.843621 2093.471875,643.074399 2096.970444,643.169293 2097.016192,649.417897 2092.833017,649.418204 2088.445735,649.432650 2088.431638,617.029007 2022.028647,618.046512"/>
    <poly id="127634655" type="building.commercial" color="255,230,230" fill="1" layer="-1.00" shape="1875.579727,651.609847 1879.117749,651.594814 1948.577379,651.354208 1948.500766,612.567744 1925.594321,612.145468 1925.571772,603.370146 1913.831584,603.314647 1913.827807,604.995889 1872.472396,605.899248 1872.488785,574.810846 1868.595016,574.945345 1836.615236,575.175563 1837.546709,617.369913 1837.614294,620.256579 1874.980452,620.296499 1875.579727,651.609847"/>
    <poly id="127647965" type="building.yes" color="255,230,230" fill="1" layer="-1.00" shape="1773.885070,906.663366 1777.056838,906.500079 1776.995337,901.520268 1784.226146,901.295821 1784.512161,891.463826 1805.565283,891.689307 1805.547597,894.249663 1812.012639,894.573798 1812.023890,973.989404 1805.679250,973.992971 1805.326987,976.495471 1774.464518,977.282594 1774.294894,965.673129 1773.885070,906.663366"/>
    <poly id="127647965#1" type="tourism.hotel" color="207,245,201" fill="1" layer="-2.00" shape="1773.885070,906.663366 1777.056838,906.500079 1776.995337,901.520268 1784.226146,901.295821 1784.512161,891.463826 1805.565283,891.689307 1805.547597,894.249663 1812.012639,894.573798 1812.023890,973.989404 1805.679250,973.992971 1805.326987,976.495471 1774.464518,977.282594 1774.294894,965.673129 1773.885070,906.663366"/>
    <poly id="127652094" type="building.yes" color="255,230,230" fill="1" layer="-1.00" shape="1707.786297,717.187536 1707.738762,721.205390 1707.622722,723.416644 1710.439731,723.528708 1710.771860,757.169707 1706.524861,760.541695 1660.026120,761.097308 1660.236619,717.333910 1675.619524,717.556007 1675.895939,682.725515 1679.206151,682.790366 1678.930931,714.414020 1681.773767,716.876585 1707.786297,717.187536"/>
    <poly id="127652096" type="building.commercial" color="255,230,230" fill="1" layer="-1.00" shape="1775.483255,610.234306 1778.141434,610.106246 1805.605180,610.297241 1807.325150,610.287748 1811.277902,610.433928 1811.324252,573.645602 1775.455664,573.710295 1775.483255,610.234306"/>
    <poly id="127652097" type="building.commercial" color="255,230,230" fill="1" layer="-1.00" shape="1778.038277,651.502203 1772.223609,651.582602 1742.813475,651.982431 1742.350637,619.160216 1778.062355,618.443240 1778.038277,651.502203"/>
    <poly id="127652099" type="building.commercial" color="255,230,230" fill="1" layer="-1.00" shape="1711.580967,714.777435 1711.789575,683.774681 1708.822845,680.015509 1682.245035,679.971591 1679.206151,682.790366 1678.930931,714.414020 1681.773767,716.876585 1707.786297,717.187536 1709.079214,717.149889 1711.580967,714.777435"/>
    <poly id="127652100" type="building.commercial" color="255,230,230" fill="1" layer="-1.00" shape="1778.038277,651.502203 1783.497256,651.541277 1783.567452,654.539395 1805.208477,654.654586 1808.815971,653.951897 1810.946924,652.433263 1812.172047,650.043448 1812.178364,647.415830 1811.434481,621.842441 1811.510815,613.928465 1805.559490,613.914311 1805.605180,610.297241 1778.141434,610.106246 1778.062355,618.443240 1778.038277,651.502203"/>
    <poly id="127652102" type="building.commercial" color="255,230,230" fill="1" layer="-1.00" shape="1764.212494,600.499210 1767.073386,600.568506 1767.122040,580.471707 1764.017637,580.348183 1764.176610,573.706894 1744.661102,573.965973 1742.333510,576.545775 1742.378177,608.059686 1764.167873,608.147203 1764.212494,600.499210"/>
    <poly id="127717878" type="building.commercial" color="255,230,230" fill="1" layer="-1.00" shape="1936.035997,548.222923 1936.026864,547.042243 1940.225457,547.009013 1940.232183,528.157630 1940.024480,507.816747 1894.324927,508.157260 1894.375436,515.174352 1894.640508,548.534380 1936.035997,548.222923"/>
    <poly id="127717880" type="building.commercial" color="255,230,230" fill="1" layer="-1.00" shape="1840.089188,507.824348 1839.973041,502.630796 1833.554574,502.887535 1833.566836,472.600713 1839.794729,472.547953 1840.059204,466.256046 1871.237592,466.250009 1871.420104,471.891608 1878.338309,471.777294 1878.347015,472.969090 1878.370255,478.203487 1878.525251,507.984772 1840.089188,507.824348"/>
    <poly id="127717962" type="building.commercial" color="255,230,230" fill="1" layer="-1.00" shape="1812.667976,508.314135 1812.730072,468.130257 1785.007536,468.073731 1784.969289,473.973776 1784.776654,508.094988 1811.146474,508.097692 1812.667976,508.314135"/>
    <poly id="127717963" type="amenity.place_of_worship" color="237,199,199" fill="1" layer="-1.00" shape="1781.142270,507.883557 1781.224362,491.885781 1777.947295,491.866731 1778.022968,476.559073 1778.074716,467.497216 1758.854158,467.389413 1758.815359,473.656891 1761.376312,473.680840 1761.273522,491.258962 1757.968423,491.238810 1757.991116,486.963862 1744.349360,486.888781 1744.236436,507.016419 1748.271659,507.032206 1748.246346,512.431688 1745.734025,512.420814 1745.638378,530.878886 1781.974043,531.077525 1782.096656,507.888129 1781.142270,507.883557"/>
    <poly id="127717963#1" type="building.yes" color="255,230,230" fill="1" layer="-1.00" shape="1781.142270,507.883557 1781.224362,491.885781 1777.947295,491.866731 1778.022968,476.559073 1778.074716,467.497216 1758.854158,467.389413 1758.815359,473.656891 1761.376312,473.680840 1761.273522,491.258962 1757.968423,491.238810 1757.991116,486.963862 1744.349360,486.888781 1744.236436,507.016419 1748.271659,507.032206 1748.246346,512.431688 1745.734025,512.420814 1745.638378,530.878886 1781.974043,531.077525 1782.096656,507.888129 1781.142270,507.883557"/>
    <poly id="127717964" type="building.commercial" color="255,230,230" fill="1" layer="-1.00" shape="1811.140718,548.629001 1811.149984,511.360398 1811.146474,508.097692 1784.776654,508.094988 1784.770204,514.430566 1787.451154,514.437034 1787.427558,531.962639 1782.563226,531.969503 1782.507398,549.070694 1811.140718,548.629001"/>
    <poly id="127718622" type="building.office" color="255,230,230" fill="1" layer="-1.00" shape="1881.833716,429.993000 1890.609949,438.393034 1894.873462,442.549123 1896.381925,442.564640 1900.705423,439.396262 1904.078857,442.637253 1906.172958,442.575874 1909.861034,439.148367 1913.302253,442.625900 1915.257082,442.536710 1928.573849,429.448795 1933.221928,429.411181 1946.944637,442.440042 1948.783800,442.435339 1952.502594,438.942273 1956.093975,442.526032 1958.131572,442.473559 1962.187118,439.160937 1965.719041,442.475093 1967.740851,442.466536 1979.964971,429.324093 1982.792406,429.002442 1983.001509,418.465869 1979.993345,418.390594 1976.842803,414.312165 1981.112104,410.039319 1979.717777,408.391471 1978.575061,407.299262 1971.106598,407.480613 1971.009848,405.327693 1965.189208,405.374251 1961.423099,408.820885 1957.973548,405.376393 1955.853612,405.381047 1952.095770,408.972772 1949.184939,405.572011 1946.938418,405.582763 1933.692878,418.818229 1928.030932,418.581635 1915.234776,405.901506 1912.930497,405.776352 1909.434193,409.322845 1905.746710,406.035943 1903.528222,406.047829 1899.632917,409.567307 1896.752815,405.922830 1894.693739,405.985607 1881.553977,419.036113 1879.208395,419.243382 1879.416953,429.696357 1881.833716,429.993000"/>
    <poly id="127718625" type="building.yes" color="255,230,230" fill="1" layer="-1.00" shape="1915.234776,405.901506 1930.023717,405.376870 1932.550997,405.366156 1935.036229,405.353768 1946.938418,405.582763 1933.692878,418.818229 1928.030932,418.581635 1915.234776,405.901506"/>
    <poly id="127718865" type="building.yes" color="255,230,230" fill="1" layer="-1.00" shape="1810.989148,405.348451 1811.731221,443.493210 1782.002231,443.056211 1782.251394,416.509075 1782.343093,406.090335 1810.989148,405.348451"/>
    <poly id="127718866" type="building.yes" color="255,230,230" fill="1" layer="-1.00" shape="1750.959582,399.953371 1761.823844,399.806594 1808.714871,399.178214 1812.486093,399.127864 1810.779575,358.584100 1751.897316,359.269888 1750.959582,399.953371"/>
    <poly id="127718951" type="building.yes" color="255,230,230" fill="1" layer="-1.00" shape="1782.002231,443.056211 1751.122423,443.141484 1750.091428,417.011097 1757.640986,416.554280 1757.535059,405.103257 1761.989139,405.002094 1766.576811,404.895116 1766.856891,416.731660 1782.251394,416.509075 1782.002231,443.056211"/>
    <poly id="127719137" type="building.retail" color="255,230,230" fill="1" layer="-1.00" shape="1861.698177,337.193715 1862.193205,301.481075 1887.993055,301.194173 1912.057218,325.814203 1912.948680,337.096095 1916.866236,337.073916 1918.648929,337.078086 1957.584459,336.891444 1981.113860,336.859785 1980.877686,297.320926 1980.829120,294.134366 1959.734060,294.018012 1946.105779,293.942969 1946.206418,255.809426 1934.787663,256.123053 1934.706961,292.876638 1911.750857,292.608430 1906.411956,292.540622 1884.317107,270.638032 1884.483477,256.937418 1880.979784,256.964967 1834.390610,257.382091 1833.699179,274.402311 1833.527886,290.875346 1834.343410,308.478891 1834.218805,337.358216 1838.163946,337.348210 1853.787753,337.190624 1861.698177,337.193715"/>
    <poly id="127719140" type="building.commercial" color="255,230,230" fill="1" layer="-1.00" shape="1934.706961,292.876638 1911.750857,292.608430 1906.411956,292.540622 1884.317107,270.638032 1884.483477,256.937418 1934.787663,256.123053 1934.706961,292.876638"/>
    <poly id="127731063" type="amenity.parking" color="184,184,179" fill="1" layer="-1.00" shape="2007.102288,442.141391 2066.718010,442.233841 2066.592156,431.828669 2066.596116,423.978601 2066.837976,394.480299 2066.840494,389.837075 2066.845882,387.588005 2066.747090,379.321846 2066.776831,365.715975 2066.829846,359.805365 2007.220626,359.702100 2007.256081,400.925513 2007.148604,407.323893 2007.102288,442.141391"/>
    <poly id="127731063#1" type="building.yes" color="255,230,230" fill="1" layer="-1.00" shape="2007.102288,442.141391 2066.718010,442.233841 2066.592156,431.828669 2066.596116,423.978601 2066.837976,394.480299 2066.840494,389.837075 2066.845882,387.588005 2066.747090,379.321846 2066.776831,365.715975 2066.829846,359.805365 2007.220626,359.702100 2007.256081,400.925513 2007.148604,407.323893 2007.102288,442.141391"/>
    <poly id="127734670" type="building.yes" color="255,230,230" fill="1" layer="-1.00" shape="1729.920210,312.697454 1729.949748,331.717246 1729.276503,335.231402 1727.797643,336.764881 1723.823865,338.377276 1719.745136,338.393191 1692.410406,338.452847 1660.835777,338.522200 1660.565820,300.830584 1666.957300,300.728432 1667.052416,262.505718 1668.433000,259.030821 1670.458626,257.162748 1673.199147,255.144945 1675.890086,254.550453 1725.038403,254.378454 1728.206314,255.027814 1729.551639,256.851798 1730.286885,260.778302 1730.228691,269.828759 1730.077941,290.734332 1730.071275,292.137079 1729.920210,312.697454"/>
    <poly id="127734670#1" type="shop.department_store" color="237,199,255" fill="1" layer="-1.00" shape="1729.920210,312.697454 1729.949748,331.717246 1729.276503,335.231402 1727.797643,336.764881 1723.823865,338.377276 1719.745136,338.393191 1692.410406,338.452847 1660.835777,338.522200 1660.565820,300.830584 1666.957300,300.728432 1667.052416,262.505718 1668.433000,259.030821 1670.458626,257.162748 1673.199147,255.144945 1675.890086,254.550453 1725.038403,254.378454 1728.206314,255.027814 1729.551639,256.851798 1730.286885,260.778302 1730.228691,269.828759 1730.077941,290.734332 1730.071275,292.137079 1729.920210,312.697454"/>
    <poly id="127734672" type="building.retail" color="255,230,230" fill="1" layer="-1.00" shape="1754.823933,270.005476 1754.009597,290.650818 1754.002345,292.420999 1753.139903,312.863998 1752.978222,334.570864 1757.961874,334.568708 1758.128434,307.094091 1761.456001,307.081724 1761.632209,303.358501 1800.467886,303.567550 1800.630409,307.950085 1805.458887,308.320389 1805.457124,312.774332 1809.883626,312.839133 1809.884508,308.407425 1812.397372,308.407210 1821.235111,308.391465 1834.343410,308.478891 1833.527886,290.875346 1833.699179,274.402311 1820.927996,274.484199 1811.414768,274.539878 1811.591203,269.224354 1813.562392,268.901936 1813.854249,261.920750 1811.642781,261.754800 1811.195038,259.777216 1809.767785,258.072434 1806.127524,256.769530 1806.295004,254.148328 1760.250651,254.810501 1760.297044,257.172972 1759.072766,257.246750 1757.170126,258.139801 1755.595336,259.613783 1755.059615,261.964230 1752.726593,262.383625 1752.423624,269.999063 1753.314980,270.001119 1754.823933,270.005476"/>
    <poly id="127734677" type="building.commercial" color="255,230,230" fill="1" layer="-1.00" shape="1811.256151,194.918092 1811.512148,234.346288 1782.249083,234.518065 1782.178882,223.580675 1779.082530,223.602232 1778.970386,205.603567 1781.427676,205.589988 1781.368318,194.909136 1788.670122,194.865616 1807.562756,194.949279 1811.256151,194.918092"/>
    <poly id="127734682" type="building.commercial" color="255,230,230" fill="1" layer="-1.00" shape="1619.656529,338.655269 1660.835777,338.522200 1660.565820,300.830584 1666.957300,300.728432 1667.052416,262.505718 1656.771758,257.854460 1646.997894,257.933483 1619.859813,258.157260 1619.657096,294.504992 1619.634220,298.434740 1619.609320,303.121587 1619.656529,338.655269"/>
    <poly id="127741493" type="building.commercial" color="255,230,230" fill="1" layer="-1.00" shape="2299.907586,495.280763 2323.323978,497.540031 2323.171396,501.364421 2328.846301,501.802404 2328.749539,525.338167 2301.118458,552.196060 2280.216069,553.255203 2280.450663,547.374090 2276.925236,547.422761 2272.437975,547.477609 2272.486386,544.328306 2272.820111,522.060276 2299.907586,495.280763"/>
    <poly id="127741496" type="building.yes" color="255,230,230" fill="1" layer="-1.00" shape="2222.794040,544.996583 2272.486386,544.328306 2272.820111,522.060276 2299.907586,495.280763 2290.989297,494.858188 2290.949510,484.946357 2290.946059,468.844858 2291.097110,465.410137 2282.251777,465.268868 2282.219441,471.358479 2287.046430,471.762591 2286.927600,494.273031 2258.218367,494.842708 2257.873719,509.115296 2226.782178,540.913152 2222.794040,544.996583"/>
    <poly id="127741498" type="building.yes" color="255,230,230" fill="1" layer="-1.00" shape="2294.891137,651.818418 2298.261794,651.952887 2301.224325,651.937454 2301.135003,647.490981 2307.212552,647.332583 2311.398491,647.087587 2311.655304,640.650603 2313.830062,640.325370 2313.792291,634.411119 2303.806155,634.547198 2303.865144,633.068581 2293.195188,633.455778 2292.938748,636.541108 2292.765966,647.557973 2295.057454,647.649387 2294.891137,651.818418"/>